[TITLE]

[JUNCTIONS]
 J02306                              105.8989
 J02307                               99.3162
 J02308                                3.2808
 J02309                                3.2808
 J02310                                3.2808
 J02311                                3.2808
 J02312                                3.2808
 J02313                                3.2808
 J02314                                3.2808
 J02315                                3.2808
 J02316                                3.2808
 J02317                                3.2808
 J02318                                3.2808
 J02319                                3.2808
 J02320                                3.2808
 J02321                                3.2808
 J02322                                3.2808
 J02323                                3.2808
 J02324                               -0.6562
 J02325                                3.2808
 J02326                                0.0000
 J02350                                3.2808
 J02872                               -5.8009
 J02877                                0.0000
 J02888                               11.4764
 J02889                               11.4764
 J02890                               11.4764
 J02891                                7.8379
 J02892                                3.2808
 J02896                                3.2808
 J02897                                3.2808
 J02898                                3.2808
 J02899                                3.2808
 J02903                                3.2808
 J02904                                3.2808
 J02905                                3.2808
 J02908                              161.3287
 J02909                              161.3287
 J02910                               -3.5253
 J02911                              239.7033
 J02912                                3.2808
 J02913                                3.2808
 J02914                                3.2808
 J02915                                3.2808
 J02916                                3.2808
 J02917                                3.2808
 J02918                                3.2808
 J02919                                3.2808
 J02920                                3.2808
 J02921                                3.2808
 J02922                                3.2808
 J02923                                3.2808
 J02924                                3.2808
 J02925                                3.2808
 J02926                                3.2808
 J02927                                3.2808
 J02928                                3.2808
 J02929                                3.2808
 J02930                                3.2808
 J02931                                3.2808
 J02932                                3.2808
 J02933                                3.2808
 J02934                                3.2808
 J02935                                3.2808
 J02936                                3.2808
 J02937                                3.2808
 J02938                                3.2808
 J02939                                3.2808
 J02940                                3.2808
 J02941                                3.2808
 J02942                                3.2808
 J02943                                3.2808
 J02944                                3.2808
 J02945                                3.2808
 J02946                                3.2808
 J02947                                3.2808
 J02948                                3.2808
 J02949                                3.2808
 J02950                                3.2808
 J03168                              105.8989
 J03169                                3.2808
 J03171                                3.2808
 J03172                                3.2808
 J03173                                3.2808
 J03191                                3.2808
 J03192                                3.2808
 J03196                                3.2808
 J03197                               41.0859
 J03198                               11.4764
 J03202                                3.2808
 J03203                               12.0013
 J03205                               40.1706
 J03206                                3.2808
 J03208                                8.3563
 J03209                               15.5413
 J03211                               13.9797
 J03213                               19.1634
 J03214                                3.2808
 J03215                                3.2808
 J03216                               18.8845
 J03217                                3.2808
 J03218                                3.2808
 J03219                                6.6765
 J03220                                3.2808
 J03221                                3.2808
 J10820-1-J10824-2                   161.3287
 J10820-2                            116.5321
 J10822-1                            127.7920
 J10822-2                            126.8504
 J10824-1-J407-2                     161.3287
 J10825-2-J9274-1                    112.7559
 J10830-1-J424-2                       4.0879
 J10830-2-J438-1                       4.0879
 J10831-1-J9166-2                      3.2808
 J10831-2-J9165-1-J9155-2             11.7979
 J10832-1-J7785-2-J7796-2            116.8405
 J10832-2-J7861-1                    116.8405
 J10834-1-J9396-2                     23.3891
 J10837-1-J10836-2                     4.7933
 J10837-2-J9052-1                      4.7933
 J10841-1-J7608-2                      3.2808
 J10843-1-J449-2                       5.8629
 J10843-2-J10842-1                     5.8629
 J10844-2-J8013-1                     16.9652
 J10845-1-J8909-2                      3.2808
 J11326-1                            114.5407
 J11326-2                            126.8504
 J11327-1                            113.9501
 J11328-1                              3.2808
 J11328-2                            113.9501
 J11329-2                             44.5453
 J11330-1                              3.2808
 J11330-2                              3.2808
 J12232-2                              3.2808
 J12234-1                             14.1437
 J12234-2                             14.1437
 J12437-1                              8.4810
 J12437-2                              3.2808
 J12438-1                              8.4810
 J12438-2                              3.2808
 J12439-1                              3.2808
 J12439-2                              3.2808
 J12440-1-J12441-1                    11.3714
 J12440-2-J12441-3                    11.3714
 J12441-2                             11.3714
 J12442-1                              8.4810
 J12442-2                              3.2808
 J12444-1-J12445-1                     3.2808
 J12444-2-J12445-3                     3.2808
 J12445-2                              3.2808
 J12446-1                              3.2808
 J12446-2                              3.2808
 J12447-1                              9.4488
 J12448-1                              3.2808
 J12448-2                              3.2808
 J12449-1                              8.5630
 J12449-2                              3.2808
 J12450-1                              3.2808
 J12450-2                              3.2808
 J12451-1                              3.2808
 J12451-2                              3.2808
 J12636-1                              3.2808
 J12638-1                              3.2808
 J12639-1                              3.2808
 J12639-2                              3.2808
 J12640-1-J12641-1                     3.2808
 J12642-1                              3.2808
 J12643-1                              3.2808
 J12644-1                              3.2808
 J12645-1                              3.2808
 J12646-1-J12647-1                     3.2808
 J12648-1                              3.2808
 J12648-2                              3.2808
 J12650-1                              3.2808
 J12651-1-J12652-1                     3.2808
 J12655-1                              9.4488
 J12655-2                              9.4488
 J12657-2                              3.2808
 J12800-1                              3.2808
 J12801-1                              3.2808
 J12802-1                              3.2808
 J12802-2                              3.2808
 J12803-1                              3.2808
 J12806-1                              3.2808
 J12807-1                              3.2808
 J12809-1                              3.2808
 J12812-1                              3.2808
 J12812-2                              3.2808
 J12813-1                              3.2808
 J12814-1                              3.2808
 J12816-1                              3.2808
 J12816-2                              3.2808
 J12817-1                              3.2808
 J12820-1                              3.2808
 J12821-1                              8.6581
 J12822-1                              8.6581
 J12823-1                              3.2808
 J12824-1                              3.2808
 J12826-1                              3.2808
 J12827-1                              3.2808
 J12827-2                              3.2808
 J12829-1                              3.2808
 J12830-2                              3.2808
 J12832-2                              3.2808
 J12834-1                              3.2808
 J12834-2                              3.2808
 J12835-1                              3.2808
 J12836-2                              5.3970
 J12837-2                              3.2808
 J12838-1                              8.6581
 J12838-2                              8.6581
 J12840-1                              3.2808
 J12841-1                              3.2808
 J12843-1                              3.2808
 J12844-1                              3.2808
 J12845-1                              3.2808
 J12847-1                              3.2808
 J12851-1                              3.2808
 J12851-2                              3.2808
 J12853-1-J12854-1                     3.2808
 J14173                                0.0000
 J146_2                               -2.5955
 J400-1-J401-2                         3.2808
 J401-1                              126.8504
 J405-2                              112.7559
 J406-1-J411-2                         3.2808
 J410-1-J9265-2                        3.2808
 J418-2-J9189-1                       25.1050
 J428-1-J9257-1                       73.3563
 J431-2-J9014-2-J432-1                 4.0879
 J433-1                                3.2808
 J435-2-J457-2                        12.6050
 J440-2                               39.9377
 J447-1-J453-2                         2.7986
 J449-1-J458-2                         3.6516
 J452-1-J451-2                         3.6516
 J456-1                               13.0971
 J460-2-J445-1                         8.2054
 J467-2-J465-1                         3.2808
 J5428                                51.2730
 J7531-1-J7589-1-J7592-2               3.2808
 J7532-1-J7589-2-J7591-1               3.2808
 J7536-1-J7593-1-J7594-2               3.2808
 J7538-1-J7598-2-J7595-1               3.2808
 J7542-1-J7566-1-J7570-2               3.2808
 J7543-1-J7567-1-J7569-2               3.2808
 J7544-1-J7567-2-J7568-1               3.2808
 J7549-1-J7573-2-J7574-1               3.2808
 J7554-1-J7601-1-J7603-2               3.2808
 J7555-1-J7582-2-J7583-1               3.2808
 J7556-1-J7581-1-J7583-2               3.2808
 J7558-1-J7580-1-J7584-2               3.2808
 J7563-1-J7562-2                       3.2808
 J7564-1-J7596-2                       3.2808
 J7566-2-J7569-1-J7572-1               3.2808
 J7568-2-J7571-1                       3.2808
 J7573-1-J7604-2                       3.2808
 J7575-1-J7605-1                       3.2808
 J7576-1-J7602-2-J7603-1               3.2808
 J7576-2-J7577-1-J7552-1               3.2808
 J7581-2-J7584-1-J7557-1               3.2808
 J7582-1-J7601-2                       3.2808
 J7587-1-J7588-2-J7562-1               3.2808
 J7588-1-J7590-2                       3.2808
 J7590-1-J7591-2-J7600-1               3.2808
 J7593-2-J7598-1-J7537-1               3.2808
 J7596-1-J7597-2-J7570-1               3.2808
 J7597-1-J7595-2-J7539-1               3.2808
 J7599-1-J7600-2                       3.2808
 J7606-1-J7607-2                       8.0118
 J7606-2-J7608-1                       8.0118
 J7607-1-J8978-2-J8979-1               8.0118
 J7612-1-J10838-2-J7610-1              3.2808
 J7613-1-J7615-2                      10.2789
 J7613-2                              10.2789
 J7614-1-J8882-2                      10.2789
 J7614-2-J7615-1                      10.2789
 J7616-1-J7620-2                      13.1496
 J7617-1                               3.2808
 J7617-2-J7619-1-J7622-1              11.3091
 J7621-2                              11.3091
 J7624-2                               3.2808
 J7625-2-J7627-1                       3.2808
 J7626-1-J7639-1                       3.2808
 J7627-2-J7629-1                       9.4587
 J7628-2                               9.4587
 J7630-2-J7632-1                       8.0118
 J7631-1                               8.0118
 J7632-2-J7634-1                       8.6352
 J7633-2-J7636-1                       8.6352
 J7637-2-J7638-2                       7.1129
 J7640-1-J9213-2                       3.2808
 J7641-1-J9211-3                       3.2808
 J7641-2-J9213-1-J9214-2               3.2808
 J7645-1-J7643-1-J7644-2               0.0000
 J7645-2-J7723-1                       0.0000
 J7646-2-J7644-1                       0.0000
 J7648-1-J7654-1-J7647-2               0.0000
 J7648-2-J7649-1-J7652-1               0.0000
 J7650-2-J8369-1                       6.0597
 J7653-2                               0.0000
 J7655-1-J7691-2                       7.5755
 J7657-1-J9162-2                       7.4344
 J7657-2-J7659-1                       7.4344
 J7660-2-J7661-1                       3.2808
 J7662-1-J7661-2                       3.2808
 J7663-1-J7662-2                       3.2808
 J7663-2-J7664-1-J7692-1               7.5755
 J7664-2-J7667-1                       7.5755
 J7667-2-J7665-1                       7.5755
 J7669-1-J7668-2-J7688-1               6.0597
 J7669-2-J7670-1                       6.0597
 J7671-1-J7670-2                       3.3760
 J7672-2-J7647-1                       3.2808
 J7673-1-J7671-2                       3.3760
 J7675-1-J7674-2-J7684-1               3.2808
 J7676-1-J7666-2-J7690-1               3.2808
 J7676-2-J7677-1                       3.2808
 J7677-2-J7678-1                       3.2808
 J7678-2-J7682-1                       3.2808
 J7679-1-J7681-2                       6.0597
 J7679-2-J7668-1                       6.0597
 J7680-2-J7681-1-J7651-1               3.2808
 J7683-2                               3.2808
 J7685-2                               3.3760
 J7686-1-J7674-1-J7673-2               3.3760
 J7687-2                               6.0597
 J7689-2                               3.2808
 J7693-2-J7666-1-J7665-2               3.2808
 J7695-1                               3.2808
 J7696-1-J7698-2-J7703-1               3.2808
 J7696-2                               3.2808
 J7697-1-J7708-2                       3.2808
 J7699-2                               3.2808
 J7701-1-J7697-2-J7698-1               3.2808
 J7701-2-J7700-1                       3.2808
 J7702-2                               3.2808
 J7703-2-J7704-1                       3.2808
 J7705-2                               3.2808
 J7706-1-J7708-1-J7709-2               3.2808
 J7707-1                               3.2808
 J7710-1-J7713-3                      52.5853
 J7710-2                              52.5853
 J7711-1-J7713-4                       3.2808
 J7711-2                               3.2808
 J7712-1-J7713-2                       3.2808
 J7712-2-J9250-2                       3.2808
 J7713-1-J7714-2                       3.2808
 J7715-1-J7716-2                       3.2808
 J7715-2-J7714-1                       3.2808
 J7717-1-J7718-2                       3.2808
 J7717-2-J7716-1                       3.2808
 J7719-2-J7718-1                       3.2808
 J7721-1-J7722-2                       3.2808
 J7721-2-J7720-1                       3.2808
 J7723-2-J7722-1                       3.2808
 J7726-1-J7732-1-J7731-2               3.2808
 J7729-1-J7728-2                       3.2808
 J7729-2-J7724-1-J7730-1               3.2808
 J7731-1-J7730-2                       3.2808
 J7732-2                               3.2808
 J7733-1-J7747-2                       3.2808
 J7734-1-J8652-1                       3.2808
 J7734-2-J7735-1                       3.2808
 J7735-2-J7736-1-J7737-1               3.2808
 J7736-2                               3.2808
 J7738-2-J8445-1                       3.2808
 J7739-1-J7740-2-J7744-1               3.2808
 J7741-1-J8095-2-J8096-1               3.2808
 J7742-2                               3.2808
 J7746-1-J8449-2-J8450-1               3.2808
 J7748-1-J453-3                        2.8117
 J7751-2-J8691-1                       3.2808
 J7757-2-J9059-1-J7758-1              44.6194
 J7763-2-J7778-1                       3.2808
 J7764-1-J7783-2                       3.2808
 J7764-2-J7765-1-J7842-1               3.2808
 J7767-2-J10833-1                      3.2808
 J7768-1-J8578-1-J10833-2              3.2808
 J7769-2-J7770-1-J7784-1               8.7467
 J7771-2                               8.7467
 J7777-1-J8047-1-J7779-2               3.2808
 J7778-2-J7837-1-J7779-1               3.2808
 J7780-1-J7774-2                       3.2808
 J7780-2-J7781-1-J7839-1               3.2808
 J7784-2-J9086-1-J9085-2               8.7467
 J7788-2-J8687-1-J7789-1              48.3596
 J7792-1-J7795-2                      35.1211
 J7793-1-J7792-2-J9396-1               3.2808
 J7793-2-J8654-1-J7794-1              40.1706
 J7808-2-J8683-1-J7809-1               3.2808
 J7818-1-J7815-2                      68.8550
 J7818-2-J7864-1-J7819-1               3.2808
 J7828-1-J7863-1-J7827-2             123.1496
 J7828-2-J7829-1                       3.2808
 J7845-1-J465-2                       13.0971
 J7846-2-J7847-1-J8672-1              10.1017
 J7847-2-J7858-1                      10.1017
 J7849-1-J7848-2-J8692-2              18.8845
 J7850-2-J8681-1-J7851-1               3.0479
 J7852-1-J7854-2                      13.0971
 J7853-1-J7852-2-J8622-1               3.2808
 J7855-1-J7844-3                      13.0971
 J7855-2-J7856-1                      13.0971
 J7860-2                               3.2808
 J7862-2                               3.2808
 J7866-2                               3.2808
 J7867-1-J9247-4                       3.2808
 J7868-2-J7879-1                      41.0859
 J7875-1-J7859-2                      14.6030
 J7876-1-J7874-2                      25.9055
 J7881-2                               3.2808
 J7884-2                               3.2808
 J7885-1-J7887-2                       3.2808
 J7885-2-J7886-1-J8042-1               3.2808
 J7886-2                               3.2808
 J7888-1-J9076-2                       3.2808
 J7889-2                               3.2808
 J7892-1-J7891-2-J7843-2               8.6581
 J7893-2-J7894-1                       8.6581
 J7896-1-J12443-2                      3.2808
 J7896-2-J7891-1                       3.2808
 J7899-1-J7894-2-J7895-1               9.1568
 J7900-2-J8845-1                       9.6227
 J7901-2-J7908-1                       3.2808
 J7903-1-J7906-2-J7902-2               3.2808
 J7905-1-J9350-2-J9351-1              12.0144
 J7911-2-J7919-1-J7912-1               3.2808
 J7913-2-J8980-2-J8981-1               8.3202
 J7914-1-J7912-2                       3.2808
 J7916-2-J7917-1-J8951-2               9.8163
 J7918-2                               3.2808
 J7920-1-J8994-5                      14.5407
 J7921-2-J7922-1-J8924-1               3.2808
 J7922-2-J8026-1                       3.2808
 J7923-2                               3.2808
 J7927-2-J7944-1-J7928-1               3.2808
 J7929-1-J9078-1-J9077-2               3.2808
 J7933-1-J7942-1-J7932-2               3.2808
 J7936-2-J7937-1                       3.2808
 J7938-1-J7940-1-J7937-2               3.2808
 J7938-2                               3.2808
 J7939-2                               3.2808
 J7941-2                               3.2808
 J7943-2                               3.2808
 J7945-2                               3.2808
 J7946-1-J7958-2                       3.2808
 J7947-1-J7956-2                       3.2808
 J7947-2-J7948-1-J7965-1               3.2808
 J7948-2-J7957-1                       3.2808
 J7949-1-J7961-1-J8741-1-J7955-2      11.3615
 J7949-2-J7956-1                       3.2808
 J7952-1-J7968-1                      18.9698
 J7957-2-J7958-1-J7967-1               3.2808
 J7960-1-J7961-2                      11.3615
 J7962-2-J8734-1                      11.3615
 J7966-2-J8732-1                      19.9081
 J7968-2-J8745-1                      18.9698
 J7969-1-J8112-2                       3.2808
 J7969-2-J8119-1                       3.2808
 J7970-2-J8521-1                      47.5722
 J7972-2-J7973-1                      34.1076
 J7973-2-J8523-1                       3.2808
 J7974-1-J9147-2-J9146-1              34.1076
 J7976-1-J8512-1-J7975-2              24.0879
 J7976-2-J8507-1                      24.0879
 J7980-1-J7981-2-J7984-1              34.7867
 J7980-2-J7979-1                       3.2808
 J7981-1-J9140-2-J9142-1              34.7867
 J7985-2                               3.2808
 J7986-2                               3.2808
 J7987-1-J9137-1-J9136-2              50.9449
 J7989-1-J9135-1-J9137-2              50.9449
 J7990-2                               3.2808
 J7992-2                              55.5151
 J7993-1-J9138-2-J9139-1              55.5151
 J7994-2                              34.9409
 J7995-1-J7997-1                      34.9409
 J7996-2                              34.9409
 J7998-2                               3.2808
 J7999-1-J9148-1-J9146-2               3.2808
 J8000-2                               3.2808
 J8001-1-J9145-1-J9148-2               3.2808
 J8003-1-J9144-1-J9145-2              25.8235
 J8004-2-J8535-1                      10.4363
 J8005-2                               3.2808
 J8007-2                              15.7283
 J8008-1-J8794-1-J8793-2              15.7283
 J8010-1-J8012-1                      11.1089
 J8013-2                              16.9652
 J8015-2                              12.0997
 J8018-1-J8911-3                       6.8045
 J8020-2                               3.2808
 J8021-2                               6.5978
 J8023-2                               6.9390
 J8025-1-J8027-2-J8031-1               3.2808
 J8025-2-J8592-1                       3.2808
 J8026-2-J8027-1-J8029-1               3.2808
 J8028-2                               3.2808
 J8030-2                               3.2808
 J8032-2-J8132-1                      15.8399
 J8038-2                               3.2808
 J8039-1-J8994-4                      14.5407
 J8040-2-J8044-1-J8041-1               3.2808
 J8041-2                               3.2808
 J8043-2                               3.2808
 J8045-2-J8203-1-J8046-1               3.2808
 J8048-2-J8248-1-J8050-1              18.8025
 J8049-2-J8048-1-J8244-1              18.3399
 J8051-1-J9095-1-J9094-2               4.5604
 J8053-2                               3.2808
 J8054-1-J7840-2                       3.2808
 J8055-1-J8057-2-J8383-1               3.2808
 J8055-2-J8058-1-J8061-1              10.5184
 J8056-1-J9164-3                       9.0518
 J8057-1-J8056-2-J8388-1               3.2808
 J8058-2-J8059-1-J8415-1              15.7907
 J8059-2-J8412-1                      16.2336
 J8060-2                              10.5184
 J8062-1-J9229-2                      28.9042
 J8062-2-J9211-1                       3.2808
 J8064-1-J8398-2                       3.2808
 J8064-2-J8550-1-J8063-1               3.2808
 J8065-2-J8566-1                       3.2808
 J8066-1-J8069-2-J8563-1               3.2808
 J8067-1-J8071-2-J8560-1               3.2808
 J8067-2-J8068-1-J8561-1               3.2808
 J8068-2-J8069-1-J8562-1               3.2808
 J8070-2-J8071-1-J8557-1               3.2808
 J8072-1-J8673-2-J8674-1              10.1017
 J8072-2-J8073-1                      10.1017
 J8075-1-J7869-3                      41.0859
 J8076-1-J10849-2                     15.5577
 J8076-2                              19.5440
 J8077-2-J8175-1                       3.2808
 J8078-2-J8126-1                       3.2808
 J8079-1-J8862-2                       3.2808
 J8080-2                               3.2808
 J8081-1-J8861-2-J8862-1               3.2808
 J8082-2-J8861-1                       9.8064
 J8083-1-J8906-4                       9.8064
 J8084-1-J8088-2                       3.2808
 J8084-2-J8085-1-J8086-1               3.2808
 J8087-1-J7790-1-J7791-2              48.3596
 J8090-1                              47.7821
 J8091-2-J8093-1                       3.2808
 J8092-1                              13.9797
 J8093-2                               3.2808
 J8094-1-J8091-3                       3.2808
 J8094-2                               3.2808
 J8096-2-J8098-1                       3.2808
 J8098-2                               3.2808
 J8100-1-J8102-2-J8108-1               3.2808
 J8100-2-J8103-1-J8722-1               3.2808
 J8101-2-J8102-1-J8106-1               3.2808
 J8103-2-J8104-1-J8110-1               3.2808
 J8104-2-J8097-1                       3.2808
 J8105-2                               3.2808
 J8107-2                               3.2808
 J8109-2                               3.2808
 J8111-2-J8117-2-J8112-1               3.2808
 J8113-1-J9376-1-J9379-2               3.2808
 J8114-1-J8118-1-J8115-2               3.2808
 J8114-2                               3.2808
 J8119-2-J8120-1-J8121-1               3.2808
 J8120-2-J8123-1                       3.2808
 J8122-2                               3.2808
 J8124-1-J8448-1-J8450-2               3.2808
 J8125-1-J8126-2                       3.2808
 J8127-1-J8034-2                      25.4134
 J8127-2                               3.2808
 J8128-2-J8130-1                       3.2808
 J8129-1-J8807-1-J8806-2               3.2808
 J8136-1-J8036-2                       3.2808
 J8140-2                               3.2808
 J8148-2-J8146-1-J8149-1              43.1233
 J8153-1-J8702-2                       3.2808
 J8153-2                               3.2808
 J8154-1-J8011-2                      11.1089
 J8154-2-J8155-1                       3.2808
 J8159-1-J8811-2-J8812-1               3.2808
 J8159-2                               3.2808
 J8160-1-J8813-1-J8812-2              23.2874
 J8162-1-J8815-2                       3.2808
 J8163-1-J8802-2                       3.2808
 J8164-1-J8163-2-J8166-1               3.2808
 J8164-2-J8165-1-J8168-1               3.2808
 J8165-2                               3.2808
 J8169-1-J8801-2-J8802-1               3.2808
 J8169-2-J8170-1                       3.2808
 J8170-2                               3.2808
 J8176-1-J8179-1-J8175-2               3.2808
 J8184-1-J7761-1-J7762-2               3.2808
 J8185-2-J8187-1-J8186-1               3.2808
 J8186-2                               3.2808
 J8189-1-J8188-2-J8191-1               3.2808
 J8189-2-J8194-1                       3.2808
 J8193-1-J8200-1-J8195-2               3.2808
 J8198-1-J8195-1-J8194-2               3.2808
 J8204-1-J8205-1-J8203-2               3.2808
 J8204-2-J8207-1                       3.2808
 J8213-1                              16.9455
 J8218-1-J8046-2                       3.2808
 J8218-2-J8219-1-J8221-1               3.2808
 J8223-1-J8219-2-J8216-1               3.2808
 J8224-1-J8222-2                       3.2808
 J8224-2-J8226-1-J8225-2               3.2808
 J8227-1-J8217-1-J8216-2               3.2808
 J8231-1-J8217-2                       3.2808
 J8236-1-J8234-2-J8235-1              18.3563
 J8236-2-J8237-1                       3.2808
 J8237-2                               3.2808
 J8240-1-J9097-1-J9098-2               8.5367
 J8240-2-J8241-1-J8242-1               3.2808
 J8245-1-J8259-1-J8247-2               3.2808
 J8245-2-J8256-1                       3.2808
 J8249-2-J8265-1                      24.8195
 J8250-1-J8050-2                      18.8025
 J8250-2-J8252-1-J8249-1              18.8025
 J8252-2-J8253-1-J8251-1               3.2808
 J8260-1-J8246-2-J8247-1              18.8025
 J8268-2-J8271-1                       3.2808
 J8275-2-J8280-1-J8276-1               3.2808
 J8284-2                               3.2808
 J8286-1-J8282-1-J8284-1              18.8845
 J8287-1-J8692-1                      18.8845
 J8287-2-J8289-1-J8288-1               3.2808
 J8291-1-J8074-3                       3.2808
 J8292-1-J8291-3                       3.2808
 J8294-1                               8.9567
 J8294-2-J8295-1                       3.2808
 J8295-2                               3.2808
 J8296-1-J7859-4                      14.6030
 J8298-2-J8301-1                      17.5033
 J8299-1-J7875-3                       3.2808
 J8300-1-J8298-3                      17.5033
 J8303-1-J7874-3                       3.2808